FoamFile
{
    version     2.0;
    format      ascii;
    class       polyBoundaryMesh;
    location    "constant/polyMesh";
    object      boundary;
}

6         
(
    farField
    {
        type patch;
        nFaces 399;
        startFace 132700;
    }
    inlet
    {
        type patch;
        nFaces 39;
        startFace 133099;
    }
    outlet
    {
        type patch;
        nFaces 167;
        startFace 133138;
    }
    wall
    {
        type wall;
        nFaces 128;
        startFace 133305;
    }
    wedge1
    {
        type wedge;
        nFaces 66633;
        startFace 133433;
    }
    wedge2
    {
        type wedge;
        nFaces 66633;
        startFace 200066;
    }
)
