// -*- C++ -*-
// File generated by PyFoam - sorry for the ugliness

FoamFile
{
 version 2.0;
 format ascii;
 class volScalarField;
 object nuTilda;
}

dimensions [ 0 2 -1 0 0 0 0 ];

internalField uniform 0;

boundaryField
{
  inlet
  {
    type fixedValue;
    value uniform 0;
  }
  outlet
  {
    type zeroGradient;
  }
  farField
  {
    type zeroGradient;
  }
  wall
  {
    type zeroGradient;
  }
  wedge2
  {
    type wedge;
  }
  wedge1
  {
    type wedge;
  }
} 	// ************************************************************************* //

